LTspice 26.0.1 for Windows
Circuit: C:\Users\Martin\Desktop\Git-Proyecto-Filtros\LTspice LowPass\ACAnalysis.net
Start Time: Mon May 25 12:07:57 2026
solver = Normal
Maximum thread count: 8
tnom = 27
temp = 27
method = trap
Direct Newton iteration succeeded in finding operating point.
Total elapsed time: 0.077 seconds.

Files loaded:
C:\Users\Martin\Desktop\Git-Proyecto-Filtros\LTspice LowPass\ACAnalysis.net
C:\Users\Martin\AppData\Local\LTspice\lib\sub\ADA4096.lib

